//
// LS-Dyna PARAMETER_EXPRESSION
//

ATTRIBUTES(COMMON) { 
  PARAM_NAME 	= VALUE(STRING,"Name of parameter the parameter");
  IS_NEGATED	= VALUE(INT, "Is used with negative sign");
  PARAM_VALUE	= VALUE(FLOAT, "Parameter value");
  PARAM_VALUE_TYPE = VALUE(INT,"Value Type");
  
   //Additional attributes for expression
  PARAM_EXPRESSION = VALUE(STRING,"Expression"); //To store string associated with expression
  IS_PARAM_EVALUATED = VALUE(INT, "Flag to check if expression is evaluated");
  IS_RESOLVED = VALUE(INT, "Is defined in the model");
  IS_LOCAL = VALUE(INT, "Local");
  PARAM_SCOPE        = VALUE(STRING, ""); 
}

DEFAULTS(COMMON) 
{
}
DRAWABLES(COMMON)
{
     _PARAM_NAME         = SCALAR(PARAM_NAME);
     _PARAM_SCOPE        = SCALAR(PARAM_SCOPE);

     _PARAM_VALUE_DOUBLE = SCALAR(PARAM_VALUE);

     _PARAM_TYPE         = SCALAR(PARAM_VALUE_TYPE);
}


GUI(COMMON) {
  SCALAR(PARAM_NAME);
  FLAG(IS_LOCAL);
  SCALAR(PARAM_EXPRESSION);
  SCALAR(PARAM_VALUE);

  FLAG(IS_RESOLVED);
}

FORMAT(radioss2017) 
{
  HEADER("*PARAMETER_EXPRESSION");
  ASSIGN(PARAM_SCOPE, "GLOBAL");
  ASSIGN(PARAM_VALUE_TYPE, 0);
  CARD("%-10s%90s",PARAM_NAME,PARAM_EXPRESSION);
}